@<TRIPOS>MOLECULE
dot
  129   128     1     0     0
SMALL
resp


@<TRIPOS>ATOM
      1 O1           0.7910    -3.1920     0.7070 os         1 dot      -0.488443
      2 O2          -1.5590    -4.6810     0.1100 os         1 dot      -0.302967
      3 N1           1.2800    -6.1180    -0.4770 n4         1 dot       0.272988
      4 C1           1.3850    -4.7200    -1.1050 c3         1 dot      -0.380463
      5 C2           0.4800    -3.5640    -0.6180 c3         1 dot       0.402917
      6 C3           2.5560    -6.8510    -0.8110 c3         1 dot      -0.340639
      7 C4           1.1300    -6.0640     1.0270 c3         1 dot      -0.340639
      8 C5           0.1240    -6.8920    -1.0670 c3         1 dot      -0.340639
      9 C6          -1.0400    -3.6940    -0.7630 c3         1 dot      -0.013772
     10 C7           1.7340    -2.1120     0.8350 c3         1 dot       0.384543
     11 C8           1.8800    -1.7770     2.3130 c3         1 dot      -0.147025
     12 C9           2.8220    -0.5840     2.5960 c3         1 dot      -0.063199
     13 C10          4.2860    -0.9470     2.9130 c3         1 dot      -0.057024
     14 C11         -2.8880    -4.4220     0.6080 c3         1 dot       0.023357
     15 C12         -3.9760    -4.5780    -0.4520 c3         1 dot      -0.026961
     16 C13          5.0990    -1.6290     1.7990 c3         1 dot      -0.209381
     17 C14         -5.4020    -4.4540     0.1190 c3         1 dot      -0.116948
     18 C15         -5.7580    -3.0950     0.7530 c3         1 dot       0.031706
     19 C16          5.2980    -0.8130     0.5080 c3         1 dot       0.042687
     20 C17         -5.6450    -1.8710    -0.1760 c3         1 dot      -0.130803
     21 C18         -6.5310    -1.9010    -1.4360 c3         1 dot      -0.012038
     22 C19          6.0290     0.5320     0.6700 c3         1 dot      -0.006803
     23 C20         -8.0470    -1.9980    -1.1850 c3         1 dot      -0.072241
     24 C21          7.4600     0.4480     1.2500 c3         1 dot       0.027400
     25 C22         -8.6630    -0.8570    -0.3420 c3         1 dot       0.075282
     26 C23         11.6240     3.1050    -0.8590 c3         1 dot      -0.033060
     27 C24         11.1960     1.7040    -0.4050 c3         1 dot      -0.062301
     28 C25         13.0670     3.4590    -0.4760 c3         1 dot       0.090330
     29 C26        -11.5880     3.4790    -0.8340 c3         1 dot       0.032546
     30 C27        -12.5170     4.2960     0.0740 c3         1 dot       0.001211
     31 C28          8.3960    -0.4290     0.4570 c2         1 dot      -0.183468
     32 C29        -11.7190     1.9650    -0.6250 c3         1 dot      -0.088184
     33 C30          9.7380     1.3680    -0.7780 c3         1 dot       0.176919
     34 C31         13.4950     4.8580    -0.9360 c3         1 dot      -0.045390
     35 C32        -12.3760     5.8120    -0.1090 c3         1 dot      -0.043152
     36 C33        -10.8580     1.1010    -1.5760 c3         1 dot       0.072588
     37 C34         -8.4530     0.5190    -0.9200 c2         1 dot      -0.217588
     38 C35          9.3470    -0.0360    -0.4020 c2         1 dot      -0.276709
     39 C36         14.9340     5.2190    -0.5450 c3         1 dot      -0.040053
     40 C37        -13.3040     6.6290     0.7990 c3         1 dot      -0.008471
     41 C38         -9.3750     1.3380    -1.4450 c2         1 dot      -0.198062
     42 C39         15.3620     6.6180    -1.0070 c3         1 dot       0.137894
     43 C40        -13.1570     8.1460     0.6230 c3         1 dot       0.119213
     44 C41         16.7990     6.9710    -0.6090 c3         1 dot      -0.219128
     45 C42        -14.0870     8.9540     1.5340 c3         1 dot      -0.223449
     46 H1           2.4160    -4.4060    -0.9280 hx         1 dot       0.161545
     47 H2           1.2580    -4.8750    -2.1800 hx         1 dot       0.161545
     48 H3           0.7570    -2.7550    -1.3160 h1         1 dot       0.004200
     49 H4           2.6920    -6.8570    -1.8930 hx         1 dot       0.163980
     50 H5           2.4780    -7.8750    -0.4410 hx         1 dot       0.163980
     51 H6           3.3940    -6.3460    -0.3300 hx         1 dot       0.163980
     52 H7           1.9580    -5.4920     1.4430 hx         1 dot       0.163980
     53 H8           1.1510    -7.0920     1.3960 hx         1 dot       0.163980
     54 H9           0.1860    -5.5780     1.2610 hx         1 dot       0.163980
     55 H10          0.1270    -7.8920    -0.6300 hx         1 dot       0.163980
     56 H11          0.2660    -6.9610    -2.1470 hx         1 dot       0.163980
     57 H12         -0.8000    -6.3720    -0.8160 hx         1 dot       0.163980
     58 H13         -1.2950    -3.9120    -1.8110 h1         1 dot       0.064426
     59 H14         -1.4600    -2.7110    -0.5140 h1         1 dot       0.064426
     60 H15          1.3570    -1.2380     0.2810 h1         1 dot      -0.024555
     61 H16          2.6970    -2.3970     0.3880 h1         1 dot      -0.024555
     62 H17          2.2280    -2.6690     2.8520 hc         1 dot       0.059851
     63 H18          0.8750    -1.5600     2.6930 hc         1 dot       0.059851
     64 H19          2.4270    -0.0410     3.4630 hc         1 dot       0.043159
     65 H20          2.7780     0.1300     1.7620 hc         1 dot       0.043159
     66 H21          4.2940    -1.6010     3.7960 hc         1 dot       0.045902
     67 H22          4.8020    -0.0290     3.2210 hc         1 dot       0.045902
     68 H23         -2.8980    -3.4200     1.0560 h1         1 dot       0.078627
     69 H24         -3.0280    -5.1510     1.4120 h1         1 dot       0.078627
     70 H25         -3.8620    -5.5650    -0.9190 hc         1 dot       0.031649
     71 H26         -3.8280    -3.8360    -1.2480 hc         1 dot       0.031649
     72 H27          4.6320    -2.5920     1.5420 hc         1 dot       0.064263
     73 H28          6.0820    -1.8920     2.2120 hc         1 dot       0.064263
     74 H29         -6.1080    -4.6770    -0.6880 hc         1 dot       0.049384
     75 H30         -5.5500    -5.2410     0.8720 hc         1 dot       0.049384
     76 H31         -6.7830    -3.1650     1.1380 hc         1 dot       0.007065
     77 H32         -5.1290    -2.9220     1.6370 hc         1 dot       0.007065
     78 H33          5.8540    -1.4320    -0.2100 hc         1 dot      -0.011628
     79 H34          4.3220    -0.6160     0.0400 hc         1 dot      -0.011628
     80 H35         -5.8790    -0.9760     0.4140 hc         1 dot       0.043868
     81 H36         -4.5990    -1.7440    -0.4920 hc         1 dot       0.043868
     82 H37         -6.3220    -0.9970    -2.0220 hc         1 dot       0.017551
     83 H38         -6.2320    -2.7430    -2.0760 hc         1 dot       0.017551
     84 H39          6.0830     1.0100    -0.3160 hc         1 dot       0.010600
     85 H40          5.4330     1.2040     1.3030 hc         1 dot       0.010600
     86 H41         -8.5520    -2.0210    -2.1590 hc         1 dot       0.030894
     87 H42         -8.2820    -2.9550    -0.6980 hc         1 dot       0.030894
     88 H43          7.8550     1.4670     1.3200 hc         1 dot       0.032432
     89 H44          7.4120     0.0740     2.2830 hc         1 dot       0.032432
     90 H45         -9.7310    -1.0640    -0.2190 hc         1 dot       0.024832
     91 H46         -8.2350    -0.8850     0.6710 hc         1 dot       0.024832
     92 H47         11.5060     3.1840    -1.9500 hc         1 dot       0.000021
     93 H48         10.9410     3.8520    -0.4260 hc         1 dot       0.000021
     94 H49         13.1820     3.3830     0.6150 hc         1 dot      -0.017294
     95 H50         13.7500     2.7110    -0.9050 hc         1 dot      -0.017294
     96 H51         11.3170     1.6130     0.6830 hc         1 dot       0.020911
     97 H52         11.8660     0.9540    -0.8500 hc         1 dot       0.020911
     98 H53        -10.5490     3.7900    -0.6550 hc         1 dot       0.004300
     99 H54        -11.8030     3.7220    -1.8860 hc         1 dot       0.004300
    100 H55        -13.5600     4.0020    -0.1140 hc         1 dot       0.004436
    101 H56        -12.3140     4.0370     1.1240 hc         1 dot       0.004436
    102 H57        -12.7710     1.6750    -0.7580 hc         1 dot       0.024007
    103 H58        -11.4590     1.7170     0.4140 hc         1 dot       0.024007
    104 H59          8.2700    -1.5030     0.6040 ha         1 dot       0.109650
    105 H60          9.6210     1.4880    -1.8660 hc         1 dot       0.000479
    106 H61          9.0660     2.1020    -0.3180 hc         1 dot       0.000479
    107 H62         13.3860     4.9300    -2.0280 hc         1 dot       0.007727
    108 H63         12.8060     5.6050    -0.5130 hc         1 dot       0.007727
    109 H64        -11.3320     6.1050     0.0810 hc         1 dot       0.004740
    110 H65        -12.5760     6.0720    -1.1600 hc         1 dot       0.004740
    111 H66        -11.1580     1.3200    -2.6120 hc         1 dot       0.019132
    112 H67        -11.0980     0.0460    -1.4050 hc         1 dot       0.019132
    113 H68         -7.4230     0.8780    -0.9040 ha         1 dot       0.113660
    114 H69          9.9390    -0.8160    -0.8860 ha         1 dot       0.123502
    115 H70         15.0430     5.1490     0.5470 hc         1 dot       0.010850
    116 H71         15.6230     4.4720    -0.9660 hc         1 dot       0.010850
    117 H72        -14.3480     6.3420     0.6050 hc         1 dot       0.005471
    118 H73        -13.1080     6.3660     1.8500 hc         1 dot       0.005471
    119 H74         -9.0270     2.3030    -1.8130 ha         1 dot       0.107285
    120 H75         15.2570     6.6860    -2.0990 hc         1 dot      -0.019737
    121 H76         14.6720     7.3640    -0.5890 hc         1 dot      -0.019737
    122 H77        -12.1130     8.4330     0.8180 hc         1 dot      -0.015479
    123 H78        -13.3530     8.4100    -0.4260 hc         1 dot      -0.015479
    124 H79         17.5160     6.2630    -1.0410 hc         1 dot       0.050038
    125 H80         17.0740     7.9750    -0.9530 hc         1 dot       0.050038
    126 H81         16.9260     6.9460     0.4800 hc         1 dot       0.050038
    127 H82        -13.8920     8.7380     2.5920 hc         1 dot       0.051441
    128 H83        -13.9560    10.0320     1.3850 hc         1 dot       0.051441
    129 H84        -15.1390     8.7160     1.3370 hc         1 dot       0.051441
@<TRIPOS>BOND
     1     1     5 1   
     2     1    10 1   
     3     2     9 1   
     4     2    14 1   
     5     3     4 1   
     6     3     6 1   
     7     3     7 1   
     8     3     8 1   
     9     4     5 1   
    10     4    46 1   
    11     4    47 1   
    12     5     9 1   
    13     5    48 1   
    14     6    49 1   
    15     6    50 1   
    16     6    51 1   
    17     7    52 1   
    18     7    53 1   
    19     7    54 1   
    20     8    55 1   
    21     8    56 1   
    22     8    57 1   
    23     9    58 1   
    24     9    59 1   
    25    10    11 1   
    26    10    60 1   
    27    10    61 1   
    28    11    12 1   
    29    11    62 1   
    30    11    63 1   
    31    12    13 1   
    32    12    64 1   
    33    12    65 1   
    34    13    16 1   
    35    13    66 1   
    36    13    67 1   
    37    14    15 1   
    38    14    68 1   
    39    14    69 1   
    40    15    17 1   
    41    15    70 1   
    42    15    71 1   
    43    16    19 1   
    44    16    72 1   
    45    16    73 1   
    46    17    18 1   
    47    17    74 1   
    48    17    75 1   
    49    18    20 1   
    50    18    76 1   
    51    18    77 1   
    52    19    22 1   
    53    19    78 1   
    54    19    79 1   
    55    20    21 1   
    56    20    80 1   
    57    20    81 1   
    58    21    23 1   
    59    21    82 1   
    60    21    83 1   
    61    22    24 1   
    62    22    84 1   
    63    22    85 1   
    64    23    25 1   
    65    23    86 1   
    66    23    87 1   
    67    24    31 1   
    68    24    88 1   
    69    24    89 1   
    70    25    37 1   
    71    25    90 1   
    72    25    91 1   
    73    26    27 1   
    74    26    28 1   
    75    26    92 1   
    76    26    93 1   
    77    27    33 1   
    78    27    96 1   
    79    27    97 1   
    80    28    34 1   
    81    28    94 1   
    82    28    95 1   
    83    29    30 1   
    84    29    32 1   
    85    29    98 1   
    86    29    99 1   
    87    30    35 1   
    88    30   100 1   
    89    30   101 1   
    90    31    38 2   
    91    31   104 1   
    92    32    36 1   
    93    32   102 1   
    94    32   103 1   
    95    33    38 1   
    96    33   105 1   
    97    33   106 1   
    98    34    39 1   
    99    34   107 1   
   100    34   108 1   
   101    35    40 1   
   102    35   109 1   
   103    35   110 1   
   104    36    41 1   
   105    36   111 1   
   106    36   112 1   
   107    37    41 2   
   108    37   113 1   
   109    38   114 1   
   110    39    42 1   
   111    39   115 1   
   112    39   116 1   
   113    40    43 1   
   114    40   117 1   
   115    40   118 1   
   116    41   119 1   
   117    42    44 1   
   118    42   120 1   
   119    42   121 1   
   120    43    45 1   
   121    43   122 1   
   122    43   123 1   
   123    44   124 1   
   124    44   125 1   
   125    44   126 1   
   126    45   127 1   
   127    45   128 1   
   128    45   129 1   
@<TRIPOS>SUBSTRUCTURE
     1 dot         1 TEMP              0 ****  ****    0 ROOT
